# Cu2OSeO3 from Bos et al., PRB 78, 094416 (2008)

data_
_cell_length_a    8.9111300000
_cell_length_b    8.9111300000
_cell_length_c    8.9111300000
_cell_angle_alpha 90.0000000000
_cell_angle_beta  90.0000000000
_cell_angle_gamma 90.0000000000
_cell_volume      707.6171307920

_symmetry_space_group_name_H-M "P 21 3"
_symmetry_Int_Tables_number 198
_space_group.reference_setting '198:P 2ac 2ab 3'
_space_group.transform_Pp_abc a,b,c;0,0,0

loop_
_space_group_symop_id
_space_group_symop_operation_xyz
1 x,y,z
2 x+1/2,-y+1/2,-z
3 -x,y+1/2,-z+1/2
4 -x+1/2,-y,z+1/2
5 y,z,x
6 y+1/2,-z+1/2,-x
7 -y,z+1/2,-x+1/2
8 -y+1/2,-z,x+1/2
9 z,x,y
10 z+1/2,-x+1/2,-y
11 -z,x+1/2,-y+1/2
12 -z+1/2,-x,y+1/2
loop_
_atom_type_symbol
_atom_type_oxidation_number
Cu2+ 2
Se4+ 4
O2- -2
loop_
_atom_site_label
_atom_site_type_symbol
_atom_site_symmetry_multiplicity
_atom_site_Wyckoff_label
_atom_site_fract_x
_atom_site_fract_y
_atom_site_fract_z
_atom_site_occupancy
_atom_site_fract_symmform
Cu1 Cu2+   4 a 0.88557  0.88557  0.88557  1.00000 Dx,Dx,Dx 
Cu2 Cu2+  12 b 0.13479  0.12096 -0.12733  1.00000 Dx,Dy,Dz 
O1  O2-    4 a 0.01030  0.01030  0.01030  1.00000 Dx,Dx,Dx 
O2  O2-    4 a 0.76190  0.76190  0.76190  1.00000 Dx,Dx,Dx 
Se1 Se4+   4 a 0.45993  0.45993  0.45993  1.00000 Dx,Dx,Dx 
Se2 Se4+   4 a 0.21223  0.21223  0.21223  1.00000 Dx,Dx,Dx 
O3  O2-   12 b 0.23060  0.51590 -0.03010  1.00000 Dx,Dy,Dz 
O4  O2-   12 b 0.27310  0.18720  0.03310  1.00000 Dx,Dy,Dz 

# end of cif
