
#======================================================================
# CRYSTAL DATA
#----------------------------------------------------------------------
data_VESTA_phase_1

_chemical_name_common                  'kapellasite'
_chemical_formula_structural           'Cu3 Zn (OH)6 Cl2'
_cell_length_a                         6.346770
_cell_length_b                         6.346770
_cell_length_c                         5.682320
_cell_angle_alpha                      90.000000
_cell_angle_beta                       90.000000
_cell_angle_gamma                      120.000000
_cell_volume                           198.226550
_space_group_name_H-M_alt              'P -3 m 1'
_space_group_IT_number                 164

loop_
_space_group_symop_operation_xyz
   'x, y, z'
   '-x, -y, -z'
   '-y, x-y, z'
   'y, -x+y, -z'
   '-x+y, -x, z'
   'x-y, x, -z'
   'y, x, -z'
   '-y, -x, z'
   'x-y, -y, -z'
   '-x+y, y, z'
   '-x, -x+y, -z'
   'x, x-y, z'
loop_
_atom_type_symbol
_atom_type_oxidation_number
Cu2+ 2
Zn2+ 2
O2- -2
H1+ 1
Cl1- -1
loop_
   _atom_site_label
   _atom_site_occupancy
   _atom_site_fract_x
   _atom_site_fract_y
   _atom_site_fract_z
   _atom_site_adp_type
   _atom_site_U_iso_or_equiv
   _atom_site_type_symbol
   Cu1        1.0     0.500000     0.000000     0.500000    Uiso  0.050000 Cu2+
   Zn1        1.0     0.000000     0.000000     0.500000    Uiso  0.050000 Zn2+
   O1         1.0     0.350470     0.175230     0.342350    Uiso  0.050000 O2-
   H1         1.0     0.382870     0.191440     0.168490    Uiso  0.050000 H1+
   Cl1        1.0     0.333333     0.666667     0.146690    Uiso  0.050000 Cl1-
